[General]
network = sim
cpu-time-limit = 100s
sim-time-limit = 20s
#debug-on-errors = true


**.n[0].isRoot = true
**.n[1].parent = 0
**.n[2].parent = 0
**.n[3].parent = 1
**.n[4].parent = 0
**.n[5].parent = 0
**.n[6].parent = 5
**.n[7].parent = 2
**.n[8].parent = 1
**.n[9].parent = 5


